/*--------------------------------*- C++ -*----------------------------------*\
| =========                 |                                                 |
| \\      /  F ield         | OpenFOAM: The Open Source CFD Toolbox           |
|  \\    /   O peration     | Version:  2206                                  |
|   \\  /    A nd           | Website:  www.openfoam.com                      |
|    \\/     M anipulation  |                                                 |
\*---------------------------------------------------------------------------*/
FoamFile
{
    version     2.0;
    format      ascii;
    class       dictionary;
    object      fvSchemes;
}
// * * * * * * * * * * * * * * * * * * * * * * * * * * * * * * * * * * * * * //

divSchemes
{
//    default         none;
    div(phi,U)      Gauss linearUpwind grad(U);
    div((nuEff*dev2(T(grad(U))))) Gauss linear;
}

laplacianSchemes
{
    default         Gauss linear limited 1.0;
}

snGradSchemes
{
    default         limited 1.0;
}

gradSchemes
{
    default         cellMDLimited Gauss linear 0;
    grad(U)         cellMDLimited Gauss linear 0.333;
    grad(p)         Gauss linear 0.333;
}
ddtSchemes
{
    default         Euler;
}

interpolationSchemes
{
    default         linear;
}


// ************************************************************************* //
